test
*SPICE Netlist generated by Advanced Sim server on 2013-06-17 22:58:53

*Schematic Netlist:


*Selected Circuit Analyses:
.TRAN 2E-8 5E-6 0 2E-8
.OP

.END
