*Default voltage-controlled switch
.MODEL VSW SW()